RC/code/5G-conf-9500/ieee8500.glm
// This is a dynamic version of the IEEE 123 Node Test System

clock {
	timezone "PST+8PDT";
	starttime '2001-08-01 12:00:00 PST';
	stoptime '2001-08-01 12:00:35 PST';
}

#set suppress_repeat_messages=1
#set relax_naming_rules=1;
#set profiler=1
#set pauseatexit=1
#define rotor_convergence=0.00000000000001
#set double_format=%+.12lg
#set complex_format=%+.12lg%+.12lg%c
#set complex_output_format=POLAR_DEG

//Deltamode declarations - global values
#set deltamode_timestep=100000000		//100 ms
#set deltamode_maximumtime=180000000000	//3 minute
#set deltamode_iteration_limit=10		//Iteration limit
#set maximum_synctime=6400
#define VSOURCE=69715.065 //66395.28 //66395.3 //2401.8

//module tape;
module tape {
  flush_interval 0 s;
}
module reliability {
	enable_subsecond_models true;
	maximum_event_length 1800000;	//Maximum length of events in seconds (manual events are excluded from this limit)
	report_event_log false;
}

module powerflow {
	enable_subsecond_models true;
	deltamode_timestep 100 ms;	//10 ms
	solver_method NR;
	all_powerflow_delta true;
	lu_solver "KLU";
	line_capacitance true;
	//enable_inrush TRUE;
};

//module powerflow {
//  solver_method NR;
//  line_capacitance TRUE;
//};

module connection;
object helics_msg {
    name GLD;
    message_type JSON;
    publish_period 1;
    configure "config/gridlabd_config.json";
}

module generators {
	enable_subsecond_models true;
	deltamode_timestep 100 ms;
}

 module climate;

object climate {
     name "WA-Yakima";
     tmyfile "WA-Yakima.tmy2";
         interpolate NONE;
};

object player {
        name recorder_trigger;
        parent sourcebus;
        file trigger.player;
        property nominal_voltage;
        flags DELTAMODE;
}


//m2001-mt1_dgmtr
object recorder {
	parent reg_feeder_reg3a;
	interval 1;
        limit 10000000;
	file collected_data/regulator3a.csv;
	property power_in_A.real,power_in_A.imag,power_in_B.real,power_in_B.imag,power_in_C.real,power_in_C.imag;
        flags DELTAMODE;
        flush 0;
};
object recorder {
        parent reg_feeder_reg3b;
        interval 1;
        limit 10000000;
        file collected_data/regulator3b.csv;
        property power_in_A.real,power_in_A.imag,power_in_B.real,power_in_B.imag,power_in_C.real,power_in_C.imag;
        flags DELTAMODE;
        flush 0;
}

object recorder {
	parent swt_ln4625876_sw;
	file "collected_data/microgrid_switch0.csv";
	property phase_A_state,phase_B_state,phase_C_state;
	flags DELTAMODE;
	interval 1;
        limit 10000000;
        flush 0;
};

object recorder {
        parent swt_l9191_48332_sw;
        file "collected_data/microgrid_switch1.csv";
        property phase_A_state,phase_B_state,phase_C_state;
        flags DELTAMODE;
        interval 1;
        limit 10000000;
        flush 0;
};

object recorder {
        parent swt_hvmv69s1b4_sw;
        file "collected_data/microgrid_switch2.csv";
        property phase_A_state,phase_B_state,phase_C_state;
        flags DELTAMODE;
        interval 1;
        limit 10000000;
        flush 0;
};

object recorder {
        parent e192860;
        property "voltage_A.real,voltage_A.imag,voltage_B.real,voltage_B.imag,voltage_C.real,voltage_C.imag";
        interval 1;
        flags DELTAMODE;
        file "collected_data/e192860.csv";
        limit 10000000;
        flush 0;
}

object recorder {
        parent ld_293663c0;
        property "GFA_status,measured_frequency";
        interval 1;
        flags DELTAMODE;
        file "collected_data/ld_293471a0.csv";
        limit 10000000;
        flush 0;
}

object group_recorder {
  group "class=inverter";
  property VA_Out; // VA_out.imag for the reactive power
  complex_part REAL;
  file collected_data/inv_power.csv;
  interval 1;  // 5 minutes
};

object regulator_configuration {
  name "rcon_feeder_reg3a";
  connect_type 1; //WYE_WYE;
	Control MANUAL; // OUTPUT_VOLTAGE;
  // use these for OUTPUT_VOLTAGE mode
  // band_center 7380.000000;
  // band_width 120.000000;
  // use these for LINE_DROP_COMP mode
  // band_center 123.000000;
  // band_width 2.000000;
  // transducer ratios only apply to LINE_DROP_COMP mode
  current_transducer_ratio 1500.000000;
  power_transducer_ratio 60.000000;
  dwell_time 15.000000;
  raise_taps 16;
  lower_taps 16;
  regulation 0.100000;
  Type B;
  compensator_r_setting_A 0.000000;
  compensator_x_setting_A 0.000000;
  // comment out the manual tap setting if using automatic control
  tap_pos_A -1;
}
object regulator {
  name "reg_feeder_reg3a";
  flags DELTAMODE;
  from "regxfmr_hvmv11sub3_lsb";
  to "hvmv11sub3_lsb";
  phases A;
  configuration "rcon_feeder_reg3a";
}
object regulator_configuration {
  name "rcon_feeder_reg2a";
  connect_type 1; //WYE_WYE;
	Control MANUAL; // OUTPUT_VOLTAGE;
  // use these for OUTPUT_VOLTAGE mode
  // band_center 7380.000000;
  // band_width 120.000000;
  // use these for LINE_DROP_COMP mode
  // band_center 123.000000;
  // band_width 2.000000;
  // transducer ratios only apply to LINE_DROP_COMP mode
  current_transducer_ratio 1500.000000;
  power_transducer_ratio 60.000000;
  dwell_time 15.000000;
  raise_taps 16;
  lower_taps 16;
  regulation 0.100000;
  Type B;
  compensator_r_setting_A 0.000000;
  compensator_x_setting_A 0.000000;
  // comment out the manual tap setting if using automatic control
  tap_pos_A -2;
}
object regulator {
  name "reg_feeder_reg2a";
  from "regxfmr_hvmv11sub2_lsb";
  to "hvmv11sub2_lsb";
  phases A;
  configuration "rcon_feeder_reg2a";
}
object regulator_configuration {
  name "rcon_feeder_reg3b";
  connect_type 1; //WYE_WYE;
	Control MANUAL; // OUTPUT_VOLTAGE;
  // use these for OUTPUT_VOLTAGE mode
  // band_center 7380.000000;
  // band_width 120.000000;
  // use these for LINE_DROP_COMP mode
  // band_center 123.000000;
  // band_width 2.000000;
  // transducer ratios only apply to LINE_DROP_COMP mode
  current_transducer_ratio 1500.000000;
  power_transducer_ratio 60.000000;
  dwell_time 15.000000;
  raise_taps 16;
  lower_taps 16;
  regulation 0.100000;
  Type B;
  compensator_r_setting_B 0.000000;
  compensator_x_setting_B 0.000000;
  // comment out the manual tap setting if using automatic control
  tap_pos_B -1;
}
object regulator {
  name "reg_feeder_reg3b";
  from "regxfmr_hvmv11sub3_lsb";
  to "hvmv11sub3_lsb";
  phases B;
  configuration "rcon_feeder_reg3b";
}
object regulator_configuration {
  name "rcon_vreg2_a";
  connect_type 1; //WYE_WYE;
	Control MANUAL; // OUTPUT_VOLTAGE;
  // use these for OUTPUT_VOLTAGE mode
  // band_center 7500.000000;
  // band_width 120.000000;
  // use these for LINE_DROP_COMP mode
  // band_center 125.000000;
  // band_width 2.000000;
  // transducer ratios only apply to LINE_DROP_COMP mode
  current_transducer_ratio 1500.000000;
  power_transducer_ratio 60.000000;
  dwell_time 15.000000;
  raise_taps 16;
  lower_taps 16;
  regulation 0.100000;
  Type B;
  compensator_r_setting_A 0.000000;
  compensator_x_setting_A 0.000000;
  // comment out the manual tap setting if using automatic control
  tap_pos_A -7;
}
object regulator {
  name "reg_vreg2_a";
  from "regxfmr_190-8593";
  to "190-8593";
  phases A;
  configuration "rcon_vreg2_a";
}
object regulator_configuration {
  name "rcon_vreg2_b";
  connect_type 1; //WYE_WYE;
	Control MANUAL; // OUTPUT_VOLTAGE;
  // use these for OUTPUT_VOLTAGE mode
  // band_center 7500.000000;
  // band_width 120.000000;
  // use these for LINE_DROP_COMP mode
  // band_center 125.000000;
  // band_width 2.000000;
  // transducer ratios only apply to LINE_DROP_COMP mode
  current_transducer_ratio 1500.000000;
  power_transducer_ratio 60.000000;
  dwell_time 15.000000;
  raise_taps 16;
  lower_taps 16;
  regulation 0.100000;
  Type B;
  compensator_r_setting_B 0.000000;
  compensator_x_setting_B 0.000000;
  // comment out the manual tap setting if using automatic control
  tap_pos_B -4;
}
object regulator {
  name "reg_vreg2_b";
  from "regxfmr_190-8593";
  to "190-8593";
  phases B;
  configuration "rcon_vreg2_b";
}
object regulator_configuration {
  name "rcon_vreg3_a";
  connect_type 1; //WYE_WYE;
	Control MANUAL; // OUTPUT_VOLTAGE;
  // use these for OUTPUT_VOLTAGE mode
  // band_center 7500.000000;
  // band_width 120.000000;
  // use these for LINE_DROP_COMP mode
  // band_center 125.000000;
  // band_width 2.000000;
  // transducer ratios only apply to LINE_DROP_COMP mode
  current_transducer_ratio 1500.000000;
  power_transducer_ratio 60.000000;
  dwell_time 15.000000;
  raise_taps 16;
  lower_taps 16;
  regulation 0.100000;
  Type B;
  compensator_r_setting_A 0.000000;
  compensator_x_setting_A 0.000000;
  // comment out the manual tap setting if using automatic control
  tap_pos_A 5;
}
object regulator {
  name "reg_vreg3_a";
  from "regxfmr_190-8581";
  to "190-8581";
  phases A;
  configuration "rcon_vreg3_a";
}
object regulator_configuration {
  name "rcon_feeder_reg1c";
  connect_type 1; //WYE_WYE;
	Control MANUAL; // OUTPUT_VOLTAGE;
  // use these for OUTPUT_VOLTAGE mode
  // band_center 7380.000000;
  // band_width 120.000000;
  // use these for LINE_DROP_COMP mode
  // band_center 123.000000;
  // band_width 2.000000;
  // transducer ratios only apply to LINE_DROP_COMP mode
  current_transducer_ratio 1500.000000;
  power_transducer_ratio 60.000000;
  dwell_time 15.000000;
  raise_taps 16;
  lower_taps 16;
  regulation 0.100000;
  Type B;
  compensator_r_setting_C 0.000000;
  compensator_x_setting_C 0.000000;
  // comment out the manual tap setting if using automatic control
  tap_pos_C -3;
}
object regulator {
  name "reg_feeder_reg1c";
  from "regxfmr_hvmv11sub1_lsb";
  to "hvmv11sub1_lsb";
  phases C;
  configuration "rcon_feeder_reg1c";
}
object regulator_configuration {
  name "rcon_feeder_reg1a";
  connect_type 1; //WYE_WYE;
	Control MANUAL; // OUTPUT_VOLTAGE;
  // use these for OUTPUT_VOLTAGE mode
  // band_center 7380.000000;
  // band_width 120.000000;
  // use these for LINE_DROP_COMP mode
  // band_center 123.000000;
  // band_width 2.000000;
  // transducer ratios only apply to LINE_DROP_COMP mode
  current_transducer_ratio 1500.000000;
  power_transducer_ratio 60.000000;
  dwell_time 15.000000;
  raise_taps 16;
  lower_taps 16;
  regulation 0.100000;
  Type B;
  compensator_r_setting_A 0.000000;
  compensator_x_setting_A 0.000000;
  // comment out the manual tap setting if using automatic control
  tap_pos_A -3;
}
object regulator {
  name "reg_feeder_reg1a";
  from "regxfmr_hvmv11sub1_lsb";
  to "hvmv11sub1_lsb";
  phases A;
  configuration "rcon_feeder_reg1a";
}
object regulator_configuration {
  name "rcon_feeder_reg2b";
  connect_type 1; //WYE_WYE;
	Control MANUAL; // OUTPUT_VOLTAGE;
  // use these for OUTPUT_VOLTAGE mode
  // band_center 7380.000000;
  // band_width 120.000000;
  // use these for LINE_DROP_COMP mode
  // band_center 123.000000;
  // band_width 2.000000;
  // transducer ratios only apply to LINE_DROP_COMP mode
  current_transducer_ratio 1500.000000;
  power_transducer_ratio 60.000000;
  dwell_time 15.000000;
  raise_taps 16;
  lower_taps 16;
  regulation 0.100000;
  Type B;
  compensator_r_setting_B 0.000000;
  compensator_x_setting_B 0.000000;
  // comment out the manual tap setting if using automatic control
  tap_pos_B -2;
}
object regulator {
  name "reg_feeder_reg2b";
  from "regxfmr_hvmv11sub2_lsb";
  to "hvmv11sub2_lsb";
  phases B;
  configuration "rcon_feeder_reg2b";
}
object regulator_configuration {
  name "rcon_feeder_reg3c";
  connect_type 1; //WYE_WYE;
	Control MANUAL; // OUTPUT_VOLTAGE;
  // use these for OUTPUT_VOLTAGE mode
  // band_center 7380.000000;
  // band_width 120.000000;
  // use these for LINE_DROP_COMP mode
  // band_center 123.000000;
  // band_width 2.000000;
  // transducer ratios only apply to LINE_DROP_COMP mode
  current_transducer_ratio 1500.000000;
  power_transducer_ratio 60.000000;
  dwell_time 15.000000;
  raise_taps 16;
  lower_taps 16;
  regulation 0.100000;
  Type B;
  compensator_r_setting_C 0.000000;
  compensator_x_setting_C 0.000000;
  // comment out the manual tap setting if using automatic control
  tap_pos_C -2;
}
object regulator {
  name "reg_feeder_reg3c";
  from "regxfmr_hvmv11sub3_lsb";
  to "hvmv11sub3_lsb";
  phases C;
  configuration "rcon_feeder_reg3c";
}
object regulator_configuration {
  name "rcon_feeder_reg1b";
  connect_type 1; //WYE_WYE;
	Control MANUAL; // OUTPUT_VOLTAGE;
  // use these for OUTPUT_VOLTAGE mode
  // band_center 7380.000000;
  // band_width 120.000000;
  // use these for LINE_DROP_COMP mode
  // band_center 123.000000;
  // band_width 2.000000;
  // transducer ratios only apply to LINE_DROP_COMP mode
  current_transducer_ratio 1500.000000;
  power_transducer_ratio 60.000000;
  dwell_time 15.000000;
  raise_taps 16;
  lower_taps 16;
  regulation 0.100000;
  Type B;
  compensator_r_setting_B 0.000000;
  compensator_x_setting_B 0.000000;
  // comment out the manual tap setting if using automatic control
  tap_pos_B -3;
}
object regulator {
  name "reg_feeder_reg1b";
  from "regxfmr_hvmv11sub1_lsb";
  to "hvmv11sub1_lsb";
  phases B;
  configuration "rcon_feeder_reg1b";
}
object regulator_configuration {
  name "rcon_feeder_reg2c";
  connect_type 1; //WYE_WYE;
	Control MANUAL; // OUTPUT_VOLTAGE;
  // use these for OUTPUT_VOLTAGE mode
  // band_center 7380.000000;
  // band_width 120.000000;
  // use these for LINE_DROP_COMP mode
  // band_center 123.000000;
  // band_width 2.000000;
  // transducer ratios only apply to LINE_DROP_COMP mode
  current_transducer_ratio 1500.000000;
  power_transducer_ratio 60.000000;
  dwell_time 15.000000;
  raise_taps 16;
  lower_taps 16;
  regulation 0.100000;
  Type B;
  compensator_r_setting_C 0.000000;
  compensator_x_setting_C 0.000000;
  // comment out the manual tap setting if using automatic control
  tap_pos_C -3;
}
object regulator {
  name "reg_feeder_reg2c";
  from "regxfmr_hvmv11sub2_lsb";
  to "hvmv11sub2_lsb";
  phases C;
  configuration "rcon_feeder_reg2c";
}
object regulator_configuration {
  name "rcon_vreg4_c";
  connect_type 1; //WYE_WYE;
	Control MANUAL; // OUTPUT_VOLTAGE;
  // use these for OUTPUT_VOLTAGE mode
  // band_center 7500.000000;
  // band_width 120.000000;
  // use these for LINE_DROP_COMP mode
  // band_center 125.000000;
  // band_width 2.000000;
  // transducer ratios only apply to LINE_DROP_COMP mode
  current_transducer_ratio 1500.000000;
  power_transducer_ratio 60.000000;
  dwell_time 15.000000;
  raise_taps 16;
  lower_taps 16;
  regulation 0.100000;
  Type B;
  compensator_r_setting_C 0.000000;
  compensator_x_setting_C 0.000000;
  // comment out the manual tap setting if using automatic control
  tap_pos_C -5;
}
object regulator {
  name "reg_vreg4_c";
  from "regxfmr_190-7361";
  to "190-7361";
  phases C;
  configuration "rcon_vreg4_c";
}
object regulator_configuration {
  name "rcon_vreg2_c";
  connect_type 1; //WYE_WYE;
	Control MANUAL; // OUTPUT_VOLTAGE;
  // use these for OUTPUT_VOLTAGE mode
  // band_center 7500.000000;
  // band_width 120.000000;
  // use these for LINE_DROP_COMP mode
  // band_center 125.000000;
  // band_width 2.000000;
  // transducer ratios only apply to LINE_DROP_COMP mode
  current_transducer_ratio 1500.000000;
  power_transducer_ratio 60.000000;
  dwell_time 15.000000;
  raise_taps 16;
  lower_taps 16;
  regulation 0.100000;
  Type B;
  compensator_r_setting_C 0.000000;
  compensator_x_setting_C 0.000000;
  // comment out the manual tap setting if using automatic control
  tap_pos_C -1;
}
object regulator {
  name "reg_vreg2_c";
  from "regxfmr_190-8593";
  to "190-8593";
  phases C;
  configuration "rcon_vreg2_c";
}
object regulator_configuration {
  name "rcon_vreg3_b";
  connect_type 1; //WYE_WYE;
	Control MANUAL; // OUTPUT_VOLTAGE;
  // use these for OUTPUT_VOLTAGE mode
  // band_center 7500.000000;
  // band_width 120.000000;
  // use these for LINE_DROP_COMP mode
  // band_center 125.000000;
  // band_width 2.000000;
  // transducer ratios only apply to LINE_DROP_COMP mode
  current_transducer_ratio 1500.000000;
  power_transducer_ratio 60.000000;
  dwell_time 15.000000;
  raise_taps 16;
  lower_taps 16;
  regulation 0.100000;
  Type B;
  compensator_r_setting_B 0.000000;
  compensator_x_setting_B 0.000000;
  // comment out the manual tap setting if using automatic control
  tap_pos_B 5;
}
object regulator {
  name "reg_vreg3_b";
  from "regxfmr_190-8581";
  to "190-8581";
  phases B;
  configuration "rcon_vreg3_b";
}
object regulator_configuration {
  name "rcon_vreg4_a";
  connect_type 1; //WYE_WYE;
	Control MANUAL; // OUTPUT_VOLTAGE;
  // use these for OUTPUT_VOLTAGE mode
  // band_center 7500.000000;
  // band_width 120.000000;
  // use these for LINE_DROP_COMP mode
  // band_center 125.000000;
  // band_width 2.000000;
  // transducer ratios only apply to LINE_DROP_COMP mode
  current_transducer_ratio 1500.000000;
  power_transducer_ratio 60.000000;
  dwell_time 15.000000;
  raise_taps 16;
  lower_taps 16;
  regulation 0.100000;
  Type B;
  compensator_r_setting_A 0.000000;
  compensator_x_setting_A 0.000000;
  // comment out the manual tap setting if using automatic control
  tap_pos_A -1;
}
object regulator {
  name "reg_vreg4_a";
  from "regxfmr_190-7361";
  to "190-7361";
  phases A;
  configuration "rcon_vreg4_a";
}
object regulator_configuration {
  name "rcon_vreg3_c";
  connect_type 1; //WYE_WYE;
	Control MANUAL; // OUTPUT_VOLTAGE;
  // use these for OUTPUT_VOLTAGE mode
  // band_center 7500.000000;
  // band_width 120.000000;
  // use these for LINE_DROP_COMP mode
  // band_center 125.000000;
  // band_width 2.000000;
  // transducer ratios only apply to LINE_DROP_COMP mode
  current_transducer_ratio 1500.000000;
  power_transducer_ratio 60.000000;
  dwell_time 15.000000;
  raise_taps 16;
  lower_taps 16;
  regulation 0.100000;
  Type B;
  compensator_r_setting_C 0.000000;
  compensator_x_setting_C 0.000000;
  // comment out the manual tap setting if using automatic control
  tap_pos_C 4;
}
object regulator {
  name "reg_vreg3_c";
  from "regxfmr_190-8581";
  to "190-8581";
  phases C;
  configuration "rcon_vreg3_c";
}
object regulator_configuration {
  name "rcon_vreg4_b";
  connect_type 1; //WYE_WYE;
	Control MANUAL; // OUTPUT_VOLTAGE;
  // use these for OUTPUT_VOLTAGE mode
  // band_center 7500.000000;
  // band_width 120.000000;
  // use these for LINE_DROP_COMP mode
  // band_center 125.000000;
  // band_width 2.000000;
  // transducer ratios only apply to LINE_DROP_COMP mode
  current_transducer_ratio 1500.000000;
  power_transducer_ratio 60.000000;
  dwell_time 15.000000;
  raise_taps 16;
  lower_taps 16;
  regulation 0.100000;
  Type B;
  compensator_r_setting_B 0.000000;
  compensator_x_setting_B 0.000000;
  // comment out the manual tap setting if using automatic control
  tap_pos_B -4;
}
object regulator {
  name "reg_vreg4_b";
  from "regxfmr_190-7361";
  to "190-7361";
  phases B;
  configuration "rcon_vreg4_b";
}
object overhead_line_conductor {
  name "wire_1/0_3w_cs";
  geometric_mean_radius 0.011417;
  diameter 0.398007;
  resistance 0.971519;
}
object overhead_line_conductor {
  name "wire_1/0_acsr";
  geometric_mean_radius 0.004458;
  diameter 0.398007;
  resistance 1.040999;
}
object overhead_line_conductor {
  name "wire_4_wpal";
  geometric_mean_radius 0.007000;
  diameter 0.250005;
  resistance 2.459419;
}
object overhead_line_conductor {
  name "wire_4_acsr";
  geometric_mean_radius 0.004367;
  diameter 0.250005;
  resistance 2.530689;
}
object overhead_line_conductor {
  name "wire_4_dpx";
  geometric_mean_radius 0.007000;
  diameter 0.250005;
  resistance 2.449900;
}
object overhead_line_conductor {
  name "wire_2/0_wpal";
  geometric_mean_radius 0.005100;
  diameter 0.447008;
  resistance 0.853001;
}
object overhead_line_conductor {
  name "wire_397_acsr";
  geometric_mean_radius 0.024000;
  diameter 0.743014;
  resistance 0.256999;
}
object overhead_line_conductor {
  name "wire_397_aac_treewire";
  geometric_mean_radius 0.024000;
  diameter 0.743014;
  resistance 0.283008;
}
object overhead_line_conductor {
  name "wire_2_acsr";
  geometric_mean_radius 0.004183;
  diameter 0.316006;
  resistance 1.625700;
}
object overhead_line_conductor {
  name "wire_2_wpal";
  geometric_mean_radius 0.004183;
  diameter 0.316006;
  resistance 1.690130;
}
object overhead_line_conductor {
  name "wire_6_wpal";
  geometric_mean_radius 0.003942;
  diameter 0.198004;
  resistance 3.910899;
}
object overhead_line_conductor {
  name "wire_4_tpx";
  geometric_mean_radius 0.007000;
  diameter 0.250005;
  resistance 2.449900;
}
object overhead_line_conductor {
  name "wire_1/0_tpx";
  geometric_mean_radius 0.011417;
  diameter 0.398007;
  resistance 0.184000;
}
object overhead_line_conductor {
  name "wire_4/0_tpx";
  geometric_mean_radius 0.015767;
  diameter 0.563010;
  resistance 0.485760;
}
object overhead_line_conductor {
  name "wire_2/0_acsr";
  geometric_mean_radius 0.005100;
  diameter 0.447008;
  resistance 0.853001;
}
object underground_line_conductor {
  name "cncab_1/0_al_15kv_1/3";
  neutral_gmr 0.000819;
  neutral_diameter 0.025197;
  neutral_resistance 4.103827;
  neutral_strands 6;
  conductor_gmr 0.011089;
  conductor_diameter 0.368117;
  conductor_resistance 0.970434;
  outer_diameter 1.078760;
  insulation_relative_permitivitty 2.30;
}
object line_spacing {
  name "spc_3ph_h-4_acsr2_acsr2_acsr4_wpal_ABCN";
  distance_AB 3.2016;
  distance_AC 4.0001;
  distance_AN 5.5903;
  distance_AE 32.0006;
  distance_BC 2.5000;
  distance_BN 7.0001;
  distance_BE 34.0006;
  distance_CN 5.2202;
  distance_CE 32.0006;
  distance_NE 27.0005;
}
object line_spacing {
  name "spc_1ph-4_acsrxx1/0_tpx_AN";
  distance_AN 7.5665;
  distance_AE 34.5006;
  distance_NE 27.0005;
}
object line_spacing {
  name "spc_1ph-x4_wpalx4_wpal_BN";
  distance_BN 7.5665;
  distance_BE 34.5006;
  distance_NE 27.0005;
}
object line_spacing {
  name "spc_1ph-x4_wpalx1/0_tpx_BN";
  distance_BN 7.5665;
  distance_BE 34.5006;
  distance_NE 27.0005;
}
object line_spacing {
  name "spc_3ph_h-4_wpal4_wpal4_wpal1/0_tpx_ABCN";
  distance_AB 3.2016;
  distance_AC 4.0001;
  distance_AN 5.5903;
  distance_AE 32.0006;
  distance_BC 2.5000;
  distance_BN 7.0001;
  distance_BE 34.0006;
  distance_CN 5.2202;
  distance_CE 32.0006;
  distance_NE 27.0005;
}
object line_spacing {
  name "spc_3ph_h-4_acsr4_acsr4_acsr4_wpal_ABCN";
  distance_AB 3.2016;
  distance_AC 4.0001;
  distance_AN 5.5903;
  distance_AE 32.0006;
  distance_BC 2.5000;
  distance_BN 7.0001;
  distance_BE 34.0006;
  distance_CN 5.2202;
  distance_CE 32.0006;
  distance_NE 27.0005;
}
object line_spacing {
  name "spc_3ph_h-2/0_acsr2/0_acsr2/0_acsr2_acsr_ABCN";
  distance_AB 3.2016;
  distance_AC 4.0001;
  distance_AN 5.5903;
  distance_AE 32.0006;
  distance_BC 2.5000;
  distance_BN 7.0001;
  distance_BE 34.0006;
  distance_CN 5.2202;
  distance_CE 32.0006;
  distance_NE 27.0005;
}
object line_spacing {
  name "spc_1ph-x4_wpalx2_acsr_BN";
  distance_BN 7.5665;
  distance_BE 34.5006;
  distance_NE 27.0005;
}
object line_spacing {
  name "spc_1ph-xx6_wpal6_wpal_CN";
  distance_CN 7.5665;
  distance_CE 34.5006;
  distance_NE 27.0005;
}
object line_spacing {
  name "spc_1ph-x4_acsrx4_wpal_BN";
  distance_BN 7.5665;
  distance_BE 34.5006;
  distance_NE 27.0005;
}
object line_spacing {
  name "spc_1ph-xx4_wpal4_wpal_CN";
  distance_CN 7.5665;
  distance_CE 34.5006;
  distance_NE 27.0005;
}
object line_spacing {
  name "spc_1ph-2_acsrxx4_wpal_AN";
  distance_AN 7.5665;
  distance_AE 34.5006;
  distance_NE 27.0005;
}
object line_spacing {
  name "spc_1ph-x4_acsrx1/0_tpx_BN";
  distance_BN 7.5665;
  distance_BE 34.5006;
  distance_NE 27.0005;
}
object line_spacing {
  name "spc_1ph-x2_acsrx1/0_tpx_BN";
  distance_BN 7.5665;
  distance_BE 34.5006;
  distance_NE 27.0005;
}
object line_spacing {
  name "spc_1ph-x4_acsrx4_tpx_BN";
  distance_BN 7.5665;
  distance_BE 34.5006;
  distance_NE 27.0005;
}
object line_spacing {
  name "spc_3ph_h-2_acsr2_acsr4_acsr4_acsr_ABCN";
  distance_AB 3.2016;
  distance_AC 4.0001;
  distance_AN 5.5903;
  distance_AE 32.0006;
  distance_BC 2.5000;
  distance_BN 7.0001;
  distance_BE 34.0006;
  distance_CN 5.2202;
  distance_CE 32.0006;
  distance_NE 27.0005;
}
object line_spacing {
  name "spc_3ph_h-397_acsr397_acsr397_acsr2/0_wpal_ABCN";
  distance_AB 3.2016;
  distance_AC 4.0001;
  distance_AN 5.5903;
  distance_AE 32.0006;
  distance_BC 2.5000;
  distance_BN 7.0001;
  distance_BE 34.0006;
  distance_CN 5.2202;
  distance_CE 32.0006;
  distance_NE 27.0005;
}
object line_spacing {
  name "spc_1ph-x4_acsrx1/0_3w_cs_BN";
  distance_BN 7.5665;
  distance_BE 34.5006;
  distance_NE 27.0005;
}
object line_spacing {
  name "spc_1p_1/0_axnj_db_A";
  distance_AE -4.0027;
}
object line_spacing {
  name "spc_1p_1/0_axnj_db_B";
  distance_BE -4.0027;
}
object line_spacing {
  name "spc_1p_1/0_axnj_db_C";
  distance_CE -4.0027;
}
object line_spacing {
  name "spc_1ph-2_acsrxx4_acsr_AN";
  distance_AN 7.5665;
  distance_AE 34.5006;
  distance_NE 27.0005;
}
object line_spacing {
  name "spc_1ph-xx4_acsr1/0_acsr_CN";
  distance_CN 7.5665;
  distance_CE 34.5006;
  distance_NE 27.0005;
}
object line_spacing {
  name "spc_1ph-2_acsrxx2_acsr_AN";
  distance_AN 7.5665;
  distance_AE 34.5006;
  distance_NE 27.0005;
}
object line_spacing {
  name "spc_1ph-xx4_wpal4_acsr_CN";
  distance_CN 7.5665;
  distance_CE 34.5006;
  distance_NE 27.0005;
}
object line_spacing {
  name "spc_3p_1/0_axnj_db_ABC";
  distance_AB 0.5000;
  distance_AC 1.0000;
  distance_AE -4.0027;
  distance_BC 0.5000;
  distance_BE -4.0027;
  distance_CE -4.0027;
}
object line_spacing {
  name "spc_1ph-4_acsrxx4_acsr_AN";
  distance_AN 7.5665;
  distance_AE 34.5006;
  distance_NE 27.0005;
}
object line_spacing {
  name "spc_1ph-2_acsrxx4/0_tpx_AN";
  distance_AN 7.5665;
  distance_AE 34.5006;
  distance_NE 27.0005;
}
object line_spacing {
  name "spc_1ph-x4_acsrx4_dpx_BN";
  distance_BN 7.5665;
  distance_BE 34.5006;
  distance_NE 27.0005;
}
object line_spacing {
  name "spc_1ph-xx4_acsr4_tpx_CN";
  distance_CN 7.5665;
  distance_CE 34.5006;
  distance_NE 27.0005;
}
object line_spacing {
  name "spc_1ph-4_acsrxx6_wpal_AN";
  distance_AN 7.5665;
  distance_AE 34.5006;
  distance_NE 27.0005;
}
object line_spacing {
  name "spc_1ph-x4_acsrx2_wpal_BN";
  distance_BN 7.5665;
  distance_BE 34.5006;
  distance_NE 27.0005;
}
object line_spacing {
  name "spc_1ph-x4_wpalx4_acsr_BN";
  distance_BN 7.5665;
  distance_BE 34.5006;
  distance_NE 27.0005;
}
object line_spacing {
  name "spc_1ph-xx4_acsr4_acsr_CN";
  distance_CN 7.5665;
  distance_CE 34.5006;
  distance_NE 27.0005;
}
object line_spacing {
  name "spc_1ph-xx4_wpal1/0_tpx_CN";
  distance_CN 7.5665;
  distance_CE 34.5006;
  distance_NE 27.0005;
}
object line_spacing {
  name "spc_2ph_h-2_acsrx2_acsr2_acsr_ACN";
  distance_AC 4.0001;
  distance_AN 5.5903;
  distance_AE 32.0006;
  distance_CN 5.2202;
  distance_CE 32.0006;
  distance_NE 27.0005;
}
object line_spacing {
  name "spc_3ph_h-4_wpal4_wpal4_wpal4_wpal_ABCN";
  distance_AB 3.2016;
  distance_AC 4.0001;
  distance_AN 5.5903;
  distance_AE 32.0006;
  distance_BC 2.5000;
  distance_BN 7.0001;
  distance_BE 34.0006;
  distance_CN 5.2202;
  distance_CE 32.0006;
  distance_NE 27.0005;
}
object line_spacing {
  name "spc_1ph-2_acsrxx1/0_tpx_AN";
  distance_AN 7.5665;
  distance_AE 34.5006;
  distance_NE 27.0005;
}
object line_spacing {
  name "spc_1ph-x2_acsrx1/0_3w_cs_BN";
  distance_BN 7.5665;
  distance_BE 34.5006;
  distance_NE 27.0005;
}
object line_spacing {
  name "spc_3ph_h-2/0_acsr2/0_acsr2/0_acsr4_acsr_ABCN";
  distance_AB 3.2016;
  distance_AC 4.0001;
  distance_AN 5.5903;
  distance_AE 32.0006;
  distance_BC 2.5000;
  distance_BN 7.0001;
  distance_BE 34.0006;
  distance_CN 5.2202;
  distance_CE 32.0006;
  distance_NE 27.0005;
}
object line_spacing {
  name "spc_1ph-4_wpalxx2_wpal_AN";
  distance_AN 7.5665;
  distance_AE 34.5006;
  distance_NE 27.0005;
}
object line_spacing {
  name "spc_1ph-x2_acsrx4_tpx_BN";
  distance_BN 7.5665;
  distance_BE 34.5006;
  distance_NE 27.0005;
}
object line_spacing {
  name "spc_3ph-69kv_397_treewire_ABCN";
  distance_AB 6.4186;
  distance_AC 10.0067;
  distance_AN 16.0809;
  distance_AE 39.9942;
  distance_BC 6.3930;
  distance_BN 11.2718;
  distance_BE 45.0139;
  distance_CN 6.1886;
  distance_CE 50.0009;
  distance_NE 56.0050;
}
object line_spacing {
  name "spc_1ph-x2_acsrx4_acsr_BN";
  distance_BN 7.5665;
  distance_BE 34.5006;
  distance_NE 27.0005;
}
object line_spacing {
  name "spc_1ph-4_wpalxx4_acsr_AN";
  distance_AN 7.5665;
  distance_AE 34.5006;
  distance_NE 27.0005;
}
object line_spacing {
  name "spc_1ph-2_wpalxx2_wpal_AN";
  distance_AN 7.5665;
  distance_AE 34.5006;
  distance_NE 27.0005;
}
object line_spacing {
  name "spc_1ph-4_acsrxx2_acsr_AN";
  distance_AN 7.5665;
  distance_AE 34.5006;
  distance_NE 27.0005;
}
object line_spacing {
  name "spc_1ph-x4_acsrx4_acsr_AN";
  distance_AN 7.5665;
  distance_AE 34.5006;
  distance_NE 27.0005;
}
object line_spacing {
  name "spc_1ph-x4_acsrx4_acsr_BN";
  distance_BN 7.5665;
  distance_BE 34.5006;
  distance_NE 27.0005;
}
object line_spacing {
  name "spc_3ph_h-4_acsr4_acsr4_acsr4_acsr_ABCN";
  distance_AB 3.2016;
  distance_AC 4.0001;
  distance_AN 5.5903;
  distance_AE 32.0006;
  distance_BC 2.5000;
  distance_BN 7.0001;
  distance_BE 34.0006;
  distance_CN 5.2202;
  distance_CE 32.0006;
  distance_NE 27.0005;
}
object line_spacing {
  name "spc_1ph-xx2_acsr4_dpx_CN";
  distance_CN 7.5665;
  distance_CE 34.5006;
  distance_NE 27.0005;
}
object line_spacing {
  name "spc_1ph-x2_acsrx2_acsr_AN";
  distance_AN 7.5665;
  distance_AE 34.5006;
  distance_NE 27.0005;
}
object line_spacing {
  name "spc_1ph-x2_acsrx2_acsr_BN";
  distance_BN 7.5665;
  distance_BE 34.5006;
  distance_NE 27.0005;
}
object line_spacing {
  name "spc_1ph-x2_acsrx2_acsr_CN";
  distance_CN 7.5665;
  distance_CE 34.5006;
  distance_NE 27.0005;
}
object line_spacing {
  name "spc_1ph-4_acsrxx4_wpal_AN";
  distance_AN 7.5665;
  distance_AE 34.5006;
  distance_NE 27.0005;
}
object line_spacing {
  name "spc_1ph-xx4_acsr2_acsr_CN";
  distance_CN 7.5665;
  distance_CE 34.5006;
  distance_NE 27.0005;
}
object line_spacing {
  name "spc_1ph-4_wpalxx1/0_tpx_AN";
  distance_AN 7.5665;
  distance_AE 34.5006;
  distance_NE 27.0005;
}
object line_spacing {
  name "spc_3ph_h-397_acsr397_acsr397_acsr397_acsr_ABCN";
  distance_AB 3.2016;
  distance_AC 4.0001;
  distance_AN 5.5903;
  distance_AE 32.0006;
  distance_BC 2.5000;
  distance_BN 7.0001;
  distance_BE 34.0006;
  distance_CN 5.2202;
  distance_CE 32.0006;
  distance_NE 27.0005;
}
object line_spacing {
  name "spc_1ph-xx2_acsr1/0_tpx_CN";
  distance_CN 7.5665;
  distance_CE 34.5006;
  distance_NE 27.0005;
}
object line_spacing {
  name "spc_3ph_h-2_acsr2_acsr2_acsr2_acsr_ABCN";
  distance_AB 3.2016;
  distance_AC 4.0001;
  distance_AN 5.5903;
  distance_AE 32.0006;
  distance_BC 2.5000;
  distance_BN 7.0001;
  distance_BE 34.0006;
  distance_CN 5.2202;
  distance_CE 32.0006;
  distance_NE 27.0005;
}
object line_spacing {
  name "spc_1ph-xx4_acsr4_wpal_CN";
  distance_CN 7.5665;
  distance_CE 34.5006;
  distance_NE 27.0005;
}
object line_spacing {
  name "spc_1ph-2/0_acsrxx2_acsr_AN";
  distance_AN 7.5665;
  distance_AE 34.5006;
  distance_NE 27.0005;
}
object line_spacing {
  name "spc_1ph-xx2/0_acsr1/0_tpx_CN";
  distance_CN 7.5665;
  distance_CE 34.5006;
  distance_NE 27.0005;
}
object line_spacing {
  name "spc_3ph_h-397_acsr397_acsr397_acsr2/0_acsr_ABCN";
  distance_AB 3.2016;
  distance_AC 4.0001;
  distance_AN 5.5903;
  distance_AE 32.0006;
  distance_BC 2.5000;
  distance_BN 7.0001;
  distance_BE 34.0006;
  distance_CN 5.2202;
  distance_CE 32.0006;
  distance_NE 27.0005;
}
object line_spacing {
  name "spc_1ph-xx2_acsr2_acsr_CN";
  distance_CN 7.5665;
  distance_CE 34.5006;
  distance_NE 27.0005;
}
object line_spacing {
  name "spc_3ph_h-2/0_acsr2/0_acsr2/0_acsr2_wpal_ABCN";
  distance_AB 3.2016;
  distance_AC 4.0001;
  distance_AN 5.5903;
  distance_AE 32.0006;
  distance_BC 2.5000;
  distance_BN 7.0001;
  distance_BE 34.0006;
  distance_CN 5.2202;
  distance_CE 32.0006;
  distance_NE 27.0005;
}
object line_spacing {
  name "spc_1ph-4_wpalxx4_wpal_AN";
  distance_AN 7.5665;
  distance_AE 34.5006;
  distance_NE 27.0005;
}
object line_spacing {
  name "spc_3ph_h-4_acsr4_acsr4_acsr4_tpx_ABCN";
  distance_AB 3.2016;
  distance_AC 4.0001;
  distance_AN 5.5903;
  distance_AE 32.0006;
  distance_BC 2.5000;
  distance_BN 7.0001;
  distance_BE 34.0006;
  distance_CN 5.2202;
  distance_CE 32.0006;
  distance_NE 27.0005;
}
object line_spacing {
  name "spc_1ph-4_acsrxx1/0_3w_cs_AN";
  distance_AN 7.5665;
  distance_AE 34.5006;
  distance_NE 27.0005;
}
object line_configuration {
  name "lcon_3ph_h-397_acsr397_acsr397_acsr397_acsr_ln5742828-1";
  spacing "spc_3ph_h-397_acsr397_acsr397_acsr397_acsr_ABCN";
  conductor_A "wire_397_acsr";
  conductor_B "wire_397_acsr";
  conductor_C "wire_397_acsr";
  conductor_N "wire_397_acsr";
}
object line_configuration {
  name "lcon_1ph-4_acsrxx4_wpal_ln6108134-1";
  spacing "spc_1ph-4_acsrxx4_wpal_AN";
  conductor_A "wire_4_acsr";
  conductor_N "wire_4_wpal";
}
object line_configuration {
  name "lcon_1ph-4_wpalxx1/0_tpx_ln5895784-1";
  spacing "spc_1ph-4_wpalxx1/0_tpx_AN";
  conductor_A "wire_4_wpal";
  conductor_N "wire_1/0_tpx";
}
object line_configuration {
  name "lcon_1ph-x2_acsrx1/0_tpx_ln5532786-2";
  spacing "spc_1ph-x2_acsrx1/0_tpx_BN";
  conductor_B "wire_2_acsr";
  conductor_N "wire_1/0_tpx";
}
object line_configuration {
  name "lcon_1ph-x4_acsrx2_wpal_ln5496577-1";
  spacing "spc_1ph-x4_acsrx2_wpal_BN";
  conductor_B "wire_4_acsr";
  conductor_N "wire_2_wpal";
}
object line_configuration {
  name "lcon_1ph-x2_acsrx1/0_3w_cs_ln6043468-3";
  spacing "spc_1ph-x2_acsrx1/0_3w_cs_BN";
  conductor_B "wire_2_acsr";
  conductor_N "wire_1/0_3w_cs";
}
object line_configuration {
  name "lcon_1ph-4_acsrxx6_wpal_ln5895785-1";
  spacing "spc_1ph-4_acsrxx6_wpal_AN";
  conductor_A "wire_4_acsr";
  conductor_N "wire_6_wpal";
}
object line_configuration {
  name "lcon_3ph_h-397_acsr397_acsr397_acsr2/0_wpal_ln6291244-1";
  spacing "spc_3ph_h-397_acsr397_acsr397_acsr2/0_wpal_ABCN";
  conductor_A "wire_397_acsr";
  conductor_B "wire_397_acsr";
  conductor_C "wire_397_acsr";
  conductor_N "wire_2/0_wpal";
}
object line_configuration {
  name "lcon_1ph-xx2_acsr4_dpx_ln5744331-1";
  spacing "spc_1ph-xx2_acsr4_dpx_CN";
  conductor_C "wire_2_acsr";
  conductor_N "wire_4_dpx";
}
object line_configuration {
  name "lcon_1ph-4_acsrxx1/0_3w_cs_ln5686244-1";
  spacing "spc_1ph-4_acsrxx1/0_3w_cs_AN";
  conductor_A "wire_4_acsr";
  conductor_N "wire_1/0_3w_cs";
}
object line_configuration {
  name "lcon_1p_1/0_axnj_db_ln8945010-1";
  spacing "spc_1p_1/0_axnj_db_C";
  conductor_C "cncab_1/0_al_15kv_1/3";
}
object line_configuration {
  name "lcon_1ph-2_acsrxx1/0_tpx_ln5528573-2";
  spacing "spc_1ph-2_acsrxx1/0_tpx_AN";
  conductor_A "wire_2_acsr";
  conductor_N "wire_1/0_tpx";
}
object line_configuration {
  name "lcon_1ph-2_acsrxx2_acsr_ln6320335-1";
  spacing "spc_1ph-2_acsrxx2_acsr_AN";
  conductor_A "wire_2_acsr";
  conductor_N "wire_2_acsr";
}
object line_configuration {
  name "lcon_3ph_h-4_acsr4_acsr4_acsr4_tpx_ln5742835-1";
  spacing "spc_3ph_h-4_acsr4_acsr4_acsr4_tpx_ABCN";
  conductor_A "wire_4_acsr";
  conductor_B "wire_4_acsr";
  conductor_C "wire_4_acsr";
  conductor_N "wire_4_tpx";
}
object line_configuration {
  name "lcon_1ph-xx4_acsr1/0_acsr_ln5852082-1";
  spacing "spc_1ph-xx4_acsr1/0_acsr_CN";
  conductor_C "wire_4_acsr";
  conductor_N "wire_1/0_acsr";
}
object line_configuration {
  name "lcon_1ph-x2_acsrx4_tpx_ln6169266-1";
  spacing "spc_1ph-x2_acsrx4_tpx_BN";
  conductor_B "wire_2_acsr";
  conductor_N "wire_4_tpx";
}
object line_configuration {
  name "lcon_3ph_h-4_acsr2_acsr2_acsr4_wpal_ln5774458-1";
  spacing "spc_3ph_h-4_acsr2_acsr2_acsr4_wpal_ABCN";
  conductor_A "wire_4_acsr";
  conductor_B "wire_2_acsr";
  conductor_C "wire_2_acsr";
  conductor_N "wire_4_wpal";
}
object line_configuration {
  name "lcon_1ph-xx4_wpal1/0_tpx_ln5956462-1";
  spacing "spc_1ph-xx4_wpal1/0_tpx_CN";
  conductor_C "wire_4_wpal";
  conductor_N "wire_1/0_tpx";
}
object line_configuration {
  name "lcon_3ph_h-2/0_acsr2/0_acsr2/0_acsr4_acsr_ln5898194-1";
  spacing "spc_3ph_h-2/0_acsr2/0_acsr2/0_acsr4_acsr_ABCN";
  conductor_A "wire_2/0_acsr";
  conductor_B "wire_2/0_acsr";
  conductor_C "wire_2/0_acsr";
  conductor_N "wire_4_acsr";
}
object line_configuration {
  name "lcon_1ph-x4_acsrx1/0_tpx_ln5562952-1";
  spacing "spc_1ph-x4_acsrx1/0_tpx_BN";
  conductor_B "wire_4_acsr";
  conductor_N "wire_1/0_tpx";
}
object line_configuration {
  name "lcon_1ph-2_acsrxx4/0_tpx_ln6103927-1";
  spacing "spc_1ph-2_acsrxx4/0_tpx_AN";
  conductor_A "wire_2_acsr";
  conductor_N "wire_4/0_tpx";
}
object line_configuration {
  name "lcon_1ph-4_wpalxx2_wpal_ln5561444-1";
  spacing "spc_1ph-4_wpalxx2_wpal_AN";
  conductor_A "wire_4_wpal";
  conductor_N "wire_2_wpal";
}
object line_configuration {
  name "lcon_3ph_h-2/0_acsr2/0_acsr2/0_acsr2_acsr_ln1047pvfrm-2";
  spacing "spc_3ph_h-2/0_acsr2/0_acsr2/0_acsr2_acsr_ABCN";
  conductor_A "wire_2/0_acsr";
  conductor_B "wire_2/0_acsr";
  conductor_C "wire_2/0_acsr";
  conductor_N "wire_2_acsr";
}
object line_configuration {
  name "lcon_1ph-x4_wpalx2_acsr_ln5472350-1";
  spacing "spc_1ph-x4_wpalx2_acsr_BN";
  conductor_B "wire_4_wpal";
  conductor_N "wire_2_acsr";
}
object line_configuration {
  name "lcon_1ph-2_wpalxx2_wpal_ln6409800-1";
  spacing "spc_1ph-2_wpalxx2_wpal_AN";
  conductor_A "wire_2_wpal";
  conductor_N "wire_2_wpal";
}
object line_configuration {
  name "lcon_3ph_h-2_acsr2_acsr4_acsr4_acsr_ln5655838-1";
  spacing "spc_3ph_h-2_acsr2_acsr4_acsr4_acsr_ABCN";
  conductor_A "wire_2_acsr";
  conductor_B "wire_2_acsr";
  conductor_C "wire_4_acsr";
  conductor_N "wire_4_acsr";
}
object line_configuration {
  name "lcon_1ph-xx4_acsr4_wpal_ln5833622-1";
  spacing "spc_1ph-xx4_acsr4_wpal_CN";
  conductor_C "wire_4_acsr";
  conductor_N "wire_4_wpal";
}
object line_configuration {
  name "lcon_3p_1/0_axnj_db_ln8979254-2";
  spacing "spc_3p_1/0_axnj_db_ABC";
  conductor_A "cncab_1/0_al_15kv_1/3";
  conductor_B "cncab_1/0_al_15kv_1/3";
  conductor_C "cncab_1/0_al_15kv_1/3";
}
object line_configuration {
  name "lcon_1ph-2_acsrxx4_acsr_ln5589097-1";
  spacing "spc_1ph-2_acsrxx4_acsr_AN";
  conductor_A "wire_2_acsr";
  conductor_N "wire_4_acsr";
}
object line_configuration {
  name "lcon_1ph-xx2_acsr2_acsr_ln5565091-1";
  spacing "spc_1ph-xx2_acsr2_acsr_CN";
  conductor_C "wire_2_acsr";
  conductor_N "wire_2_acsr";
}
object line_configuration {
  name "lcon_3ph_h-2_acsr2_acsr2_acsr2_acsr_ln6169251-1";
  spacing "spc_3ph_h-2_acsr2_acsr2_acsr2_acsr_ABCN";
  conductor_A "wire_2_acsr";
  conductor_B "wire_2_acsr";
  conductor_C "wire_2_acsr";
  conductor_N "wire_2_acsr";
}
object line_configuration {
  name "lcon_1ph-xx6_wpal6_wpal_ln6108128-2";
  spacing "spc_1ph-xx6_wpal6_wpal_CN";
  conductor_C "wire_6_wpal";
  conductor_N "wire_6_wpal";
}
object line_configuration {
  name "lcon_1ph-xx4_acsr4_tpx_ln5531226-1";
  spacing "spc_1ph-xx4_acsr4_tpx_CN";
  conductor_C "wire_4_acsr";
  conductor_N "wire_4_tpx";
}
object line_configuration {
  name "lcon_1ph-xx4_wpal4_acsr_ln6108135-1";
  spacing "spc_1ph-xx4_wpal4_acsr_CN";
  conductor_C "wire_4_wpal";
  conductor_N "wire_4_acsr";
}
object line_configuration {
  name "lcon_1ph-x4_acsrx4_acsr_ln5833720-1";
  spacing "spc_1ph-x4_acsrx4_acsr_BN";
  conductor_B "wire_4_acsr";
  conductor_N "wire_4_acsr";
}
object line_configuration {
  name "lcon_1ph-4_wpalxx4_acsr_ln5835146-1";
  spacing "spc_1ph-4_wpalxx4_acsr_AN";
  conductor_A "wire_4_wpal";
  conductor_N "wire_4_acsr";
}
object line_configuration {
  name "lcon_1ph-2_acsrxx4_wpal_ln5686245-2";
  spacing "spc_1ph-2_acsrxx4_wpal_AN";
  conductor_A "wire_2_acsr";
  conductor_N "wire_4_wpal";
}
object line_configuration {
  name "lcon_1ph-x4_wpalx1/0_tpx_ln6077771-1";
  spacing "spc_1ph-x4_wpalx1/0_tpx_BN";
  conductor_B "wire_4_wpal";
  conductor_N "wire_1/0_tpx";
}
object line_configuration {
  name "lcon_1ph-4_acsrxx4_acsr_ln6392977-2";
  spacing "spc_1ph-4_acsrxx4_acsr_AN";
  conductor_A "wire_4_acsr";
  conductor_N "wire_4_acsr";
}
object line_configuration {
  name "lcon_3ph-69kv_397_treewire_hvmv69s1s2-3";
  spacing "spc_3ph-69kv_397_treewire_ABCN";
  conductor_A "wire_397_aac_treewire";
  conductor_B "wire_397_aac_treewire";
  conductor_C "wire_397_aac_treewire";
  conductor_N "wire_2/0_acsr";
}
object line_configuration {
  name "lcon_3ph_h-4_wpal4_wpal4_wpal1/0_tpx_ln6411371-1";
  spacing "spc_3ph_h-4_wpal4_wpal4_wpal1/0_tpx_ABCN";
  conductor_A "wire_4_wpal";
  conductor_B "wire_4_wpal";
  conductor_C "wire_4_wpal";
  conductor_N "wire_1/0_tpx";
}
object line_configuration {
  name "lcon_1ph-x4_acsrx1/0_3w_cs_ln5775368-1";
  spacing "spc_1ph-x4_acsrx1/0_3w_cs_BN";
  conductor_B "wire_4_acsr";
  conductor_N "wire_1/0_3w_cs";
}
object line_configuration {
  name "lcon_3ph_h-4_acsr4_acsr4_acsr4_acsr_ln6380810-1";
  spacing "spc_3ph_h-4_acsr4_acsr4_acsr4_acsr_ABCN";
  conductor_A "wire_4_acsr";
  conductor_B "wire_4_acsr";
  conductor_C "wire_4_acsr";
  conductor_N "wire_4_acsr";
}
object line_configuration {
  name "lcon_1ph-xx2_acsr1/0_tpx_ln6229827-1";
  spacing "spc_1ph-xx2_acsr1/0_tpx_CN";
  conductor_C "wire_2_acsr";
  conductor_N "wire_1/0_tpx";
}
object line_configuration {
  name "lcon_1p_1/0_axnj_db_ln81048087-1";
  spacing "spc_1p_1/0_axnj_db_B";
  conductor_B "cncab_1/0_al_15kv_1/3";
}
object line_configuration {
  name "lcon_1ph-x4_acsrx4_acsr_ln5683000-1";
  spacing "spc_1ph-x4_acsrx4_acsr_AN";
  conductor_A "wire_4_acsr";
  conductor_N "wire_4_acsr";
}
object line_configuration {
  name "lcon_1ph-4_wpalxx4_wpal_ln5472359-1";
  spacing "spc_1ph-4_wpalxx4_wpal_AN";
  conductor_A "wire_4_wpal";
  conductor_N "wire_4_wpal";
}
object line_configuration {
  name "lcon_1ph-x4_acsrx4_dpx_ln6506308-1";
  spacing "spc_1ph-x4_acsrx4_dpx_BN";
  conductor_B "wire_4_acsr";
  conductor_N "wire_4_dpx";
}
object line_configuration {
  name "lcon_1ph-x4_wpalx4_wpal_ln5654485-1";
  spacing "spc_1ph-x4_wpalx4_wpal_BN";
  conductor_B "wire_4_wpal";
  conductor_N "wire_4_wpal";
}
object line_configuration {
  name "lcon_1ph-x2_acsrx4_acsr_ln6201698-2";
  spacing "spc_1ph-x2_acsrx4_acsr_BN";
  conductor_B "wire_2_acsr";
  conductor_N "wire_4_acsr";
}
object line_configuration {
  name "lcon_1ph-4_acsrxx2_acsr_ln5775367-1";
  spacing "spc_1ph-4_acsrxx2_acsr_AN";
  conductor_A "wire_4_acsr";
  conductor_N "wire_2_acsr";
}
object line_configuration {
  name "lcon_1ph-x2_acsrx2_acsr_ln2001215-1";
  spacing "spc_1ph-x2_acsrx2_acsr_CN";
  conductor_C "wire_2_acsr";
  conductor_N "wire_2_acsr";
}
object line_configuration {
  name "lcon_3ph_h-2/0_acsr2/0_acsr2/0_acsr2_wpal_ln6259996-1";
  spacing "spc_3ph_h-2/0_acsr2/0_acsr2/0_acsr2_wpal_ABCN";
  conductor_A "wire_2/0_acsr";
  conductor_B "wire_2/0_acsr";
  conductor_C "wire_2/0_acsr";
  conductor_N "wire_2_wpal";
}
object line_configuration {
  name "lcon_1ph-2/0_acsrxx2_acsr_ln6129680-2";
  spacing "spc_1ph-2/0_acsrxx2_acsr_AN";
  conductor_A "wire_2/0_acsr";
  conductor_N "wire_2_acsr";
}
object line_configuration {
  name "lcon_1ph-xx4_wpal4_wpal_ln6018241-1";
  spacing "spc_1ph-xx4_wpal4_wpal_CN";
  conductor_C "wire_4_wpal";
  conductor_N "wire_4_wpal";
}
object line_configuration {
  name "lcon_1ph-4_acsrxx1/0_tpx_ln6138596-1";
  spacing "spc_1ph-4_acsrxx1/0_tpx_AN";
  conductor_A "wire_4_acsr";
  conductor_N "wire_1/0_tpx";
}
object line_configuration {
  name "lcon_1p_1/0_axnj_db_ln8979370-1";
  spacing "spc_1p_1/0_axnj_db_A";
  conductor_A "cncab_1/0_al_15kv_1/3";
}
object line_configuration {
  name "lcon_3ph_h-4_acsr4_acsr4_acsr4_wpal_ln5927423-1";
  spacing "spc_3ph_h-4_acsr4_acsr4_acsr4_wpal_ABCN";
  conductor_A "wire_4_acsr";
  conductor_B "wire_4_acsr";
  conductor_C "wire_4_acsr";
  conductor_N "wire_4_wpal";
}
object line_configuration {
  name "lcon_1ph-xx2/0_acsr1/0_tpx_ln5866260-1";
  spacing "spc_1ph-xx2/0_acsr1/0_tpx_CN";
  conductor_C "wire_2/0_acsr";
  conductor_N "wire_1/0_tpx";
}
object line_configuration {
  name "lcon_1ph-x4_acsrx4_tpx_ln5804795-1";
  spacing "spc_1ph-x4_acsrx4_tpx_BN";
  conductor_B "wire_4_acsr";
  conductor_N "wire_4_tpx";
}
object line_configuration {
  name "lcon_1ph-x2_acsrx2_acsr_ln2001313-1";
  spacing "spc_1ph-x2_acsrx2_acsr_AN";
  conductor_A "wire_2_acsr";
  conductor_N "wire_2_acsr";
}
object line_configuration {
  name "lcon_1ph-x4_acsrx4_wpal_ln6137086-2";
  spacing "spc_1ph-x4_acsrx4_wpal_BN";
  conductor_B "wire_4_acsr";
  conductor_N "wire_4_wpal";
}
object line_configuration {
  name "lcon_1ph-x2_acsrx2_acsr_ln5835159-1";
  spacing "spc_1ph-x2_acsrx2_acsr_BN";
  conductor_B "wire_2_acsr";
  conductor_N "wire_2_acsr";
}
object line_configuration {
  name "lcon_3ph_h-4_wpal4_wpal4_wpal4_wpal_ln5956464-1";
  spacing "spc_3ph_h-4_wpal4_wpal4_wpal4_wpal_ABCN";
  conductor_A "wire_4_wpal";
  conductor_B "wire_4_wpal";
  conductor_C "wire_4_wpal";
  conductor_N "wire_4_wpal";
}
object line_configuration {
  name "lcon_3ph_h-397_acsr397_acsr397_acsr2/0_acsr_ln6291242-1";
  spacing "spc_3ph_h-397_acsr397_acsr397_acsr2/0_acsr_ABCN";
  conductor_A "wire_397_acsr";
  conductor_B "wire_397_acsr";
  conductor_C "wire_397_acsr";
  conductor_N "wire_2/0_acsr";
}
object line_configuration {
  name "lcon_1ph-xx4_acsr2_acsr_ln5741170-3";
  spacing "spc_1ph-xx4_acsr2_acsr_CN";
  conductor_C "wire_4_acsr";
  conductor_N "wire_2_acsr";
}
object line_configuration {
  name "lcon_1ph-x4_wpalx4_acsr_ln6047568-1";
  spacing "spc_1ph-x4_wpalx4_acsr_BN";
  conductor_B "wire_4_wpal";
  conductor_N "wire_4_acsr";
}
object line_configuration {
  name "lcon_1ph-xx4_acsr4_acsr_ln5563852-1";
  spacing "spc_1ph-xx4_acsr4_acsr_CN";
  conductor_C "wire_4_acsr";
  conductor_N "wire_4_acsr";
}
object line_configuration {
  name "lcon_2ph_h-2_acsrx2_acsr2_acsr_ln5637597-1";
  spacing "spc_2ph_h-2_acsrx2_acsr2_acsr_ACN";
  conductor_A "wire_2_acsr";
  conductor_C "wire_2_acsr";
  conductor_N "wire_2_acsr";
}
object line_configuration {
  name "lcon_cap_1c_PUZ_C";
  z33 1.00000+1.00000j;
  c33 0.0000;
}
object line_configuration {
  name "lcon_cap_3b_PUZ_B";
  z22 1.00000+1.00000j;
  c22 0.0000;
}
object line_configuration {
  name "lcon_cap_1b_PUZ_B";
  z22 1.00000+1.00000j;
  c22 0.0000;
}
object line_configuration {
  name "lcon_cap_3a_PUZ_A";
  z11 1.00000+1.00000j;
  c11 0.0000;
}
object line_configuration {
  name "lcon_cap_1a_PUZ_A";
  z11 1.00000+1.00000j;
  c11 0.0000;
}
object line_configuration {
  name "lcon_cap_2a_PUZ_A";
  z11 1.00000+1.00000j;
  c11 0.0000;
}
object line_configuration {
  name "lcon_cap_3c_PUZ_C";
  z33 1.00000+1.00000j;
  c33 0.0000;
}
object triplex_line_configuration {
  name "tcon_4/0triplex_12";
  z11 2.16454+0.880800j;
  z12 0.623542+0.673688j;
  z21 0.623542+0.673688j;
  z22 2.16454+0.880800j;
}
object line_configuration {
  name "lcon_cap_2c_PUZ_C";
  z33 1.00000+1.00000j;
  c33 0.0000;
}
object triplex_line_configuration {
  name "tcon_750_triplex_12";
  z11 0.262666+0.146913j;
  z12 0.123666+0.0353481j;
  z21 0.123666+0.0353481j;
  z22 0.262666+0.146913j;
}
object line_configuration {
  name "lcon_cap_2b_PUZ_B";
  z22 1.00000+1.00000j;
  c22 0.0000;
}
object transformer_configuration {
  name "xcon_ct100";
  connect_type SINGLE_PHASE_CENTER_TAPPED;
  power_rating 100.000;
  primary_voltage 7200.000;
  secondary_voltage 120.000;
  impedance 0.00600000+0.0163200j;
  impedance1 0.0120000+0.00816000j;
  impedance2 0.0120000+0.00816000j;
  shunt_reactance 200.000000;
  shunt_resistance 500.000000;
}
object transformer_configuration {
  name "xcon_ct250";
  connect_type SINGLE_PHASE_CENTER_TAPPED;
  power_rating 250.000;
  primary_voltage 7200.000;
  secondary_voltage 120.000;
  impedance 0.00600000+0.0163200j;
  impedance1 0.0120000+0.00816000j;
  impedance2 0.0120000+0.00816000j;
  shunt_reactance 200.000000;
  shunt_resistance 500.000000;
}
object transformer_configuration {
  name "xcon_ct25";
  connect_type SINGLE_PHASE_CENTER_TAPPED;
  power_rating 25.000;
  primary_voltage 7200.000;
  secondary_voltage 120.000;
  impedance 0.00600000+0.0163200j;
  impedance1 0.0120000+0.00816000j;
  impedance2 0.0120000+0.00816000j;
  shunt_reactance 200.000000;
  shunt_resistance 500.000000;
}
object transformer_configuration {
  name "xcon_ct75";
  connect_type SINGLE_PHASE_CENTER_TAPPED;
  power_rating 75.000;
  primary_voltage 7200.000;
  secondary_voltage 120.000;
  impedance 0.00600000+0.0163200j;
  impedance1 0.0120000+0.00816000j;
  impedance2 0.0120000+0.00816000j;
  shunt_reactance 200.000000;
  shunt_resistance 500.000000;
}
object transformer_configuration {
  name "xcon_ct50";
  connect_type SINGLE_PHASE_CENTER_TAPPED;
  power_rating 50.000;
  primary_voltage 7200.000;
  secondary_voltage 120.000;
  impedance 0.00600000+0.0163200j;
  impedance1 0.0120000+0.00816000j;
  impedance2 0.0120000+0.00816000j;
  shunt_reactance 200.000000;
  shunt_resistance 500.000000;
}
object transformer_configuration {
  name "xcon_ct5";
  connect_type SINGLE_PHASE_CENTER_TAPPED;
  power_rating 5.000;
  primary_voltage 7200.000;
  secondary_voltage 120.000;
  impedance 0.00600000+0.0163200j;
  impedance1 0.0120000+0.00816000j;
  impedance2 0.0120000+0.00816000j;
  shunt_reactance 200.000000;
  shunt_resistance 500.000000;
}
object transformer_configuration {
  name "xcon_ct15";
  connect_type SINGLE_PHASE_CENTER_TAPPED;
  power_rating 15.000;
  primary_voltage 7200.000;
  secondary_voltage 120.000;
  impedance 0.00600000+0.0163200j;
  impedance1 0.0120000+0.00816000j;
  impedance2 0.0120000+0.00816000j;
  shunt_reactance 200.000000;
  shunt_resistance 500.000000;
}
object transformer_configuration {
  name "xcon_ct37";
  connect_type SINGLE_PHASE_CENTER_TAPPED;
  power_rating 37.500;
  primary_voltage 7200.000;
  secondary_voltage 120.000;
  impedance 0.00600000+0.0163200j;
  impedance1 0.0120000+0.00816000j;
  impedance2 0.0120000+0.00816000j;
  shunt_reactance 200.000000;
  shunt_resistance 500.000000;
}
object transformer_configuration {
  name "xcon_ct10";
  connect_type SINGLE_PHASE_CENTER_TAPPED;
  power_rating 10.000;
  primary_voltage 7200.000;
  secondary_voltage 120.000;
  impedance 0.00600000+0.0163200j;
  impedance1 0.0120000+0.00816000j;
  impedance2 0.0120000+0.00816000j;
  shunt_reactance 200.000000;
  shunt_resistance 500.000000;
}
object capacitor {
  name "cap_capbank4";
  parent "r18242";
  phases ABCN;
  phases_connected ABCN;
  cap_nominal_voltage 7199.56;
  capacitor_A 300000.00;
  switchA CLOSED;
  capacitor_B 300000.00;
  switchB CLOSED;
  capacitor_C 300000.00;
  switchC CLOSED;
}
object capacitor {
  name "cap_capbank3a";
  parent "r42246";
  phases AN;
  phases_connected AN;
  cap_nominal_voltage 7200.00;
  capacitor_A 400000.00;
  switchA CLOSED;
  control VAR; //MANUAL; // VAR;
  VAr_set_low -300000.00;
  VAr_set_high 200000.00;
  	remote_sense "line_cap_3a";
  pt_phase A;
  	control_level BANK;
  dwell_time 100.00;
}
object capacitor {
  name "cap_capbank3b";
  parent "r42246";
  phases BN;
  phases_connected BN;
  cap_nominal_voltage 7200.00;
  capacitor_B 400000.00;
  switchB CLOSED;
  control VAR; //MANUAL; // VAR;
  VAr_set_low -300000.00;
  VAr_set_high 200000.00;
  	remote_sense "line_cap_3b";
  pt_phase B;
  	control_level BANK;
  dwell_time 101.00;
}
object capacitor {
  name "cap_capbank2a";
  parent "r42247";
  phases AN;
  phases_connected AN;
  cap_nominal_voltage 7200.00;
  capacitor_A 300000.00;
  switchA CLOSED;
  control VAR; //MANUAL; // VAR;
  VAr_set_low -225000.00;
  VAr_set_high 150000.00;
	remote_sense "line_cap_2a";
  pt_phase A;
	control_level BANK;
  dwell_time 100.00;
}
object capacitor {
  name "cap_capbank3c";
  parent "r42246";
  phases CN;
  phases_connected CN;
  cap_nominal_voltage 7200.00;
  capacitor_C 400000.00;
  switchC CLOSED;
  control MANUAL; // VAR;
  VAr_set_low -300000.00;
  VAr_set_high 200000.00;
  	remote_sense "line_cap_3c";
  pt_phase C;
  	control_level BANK;
  dwell_time 102.00;
}
object capacitor {
  name "cap_capbank1a";
  parent "r20185";
  phases AN;
  phases_connected AN;
  cap_nominal_voltage 7200.00;
  capacitor_A 300000.00;
  switchA CLOSED;
  control MANUAL; // VAR;
  VAr_set_low -225000.00;
  VAr_set_high 150000.00;
	remote_sense "line_cap_1a";
  pt_phase A;
	control_level BANK;
  dwell_time 100.00;
}
object capacitor {
  name "cap_capbank2b";
  parent "r42247";
  phases BN;
  phases_connected BN;
  cap_nominal_voltage 7200.00;
  capacitor_B 300000.00;
  switchB CLOSED;
  control MANUAL; // VAR;
  VAr_set_low -225000.00;
  VAr_set_high 150000.00;
	remote_sense "line_cap_2b";
  pt_phase B;
	control_level BANK;
  dwell_time 101.00;
}
object capacitor {
  name "cap_capbank1b";
  parent "r20185";
  phases BN;
  phases_connected BN;
  cap_nominal_voltage 7200.00;
  capacitor_B 300000.00;
  switchB CLOSED;
  control MANUAL; // VAR;
  VAr_set_low -225000.00;
  VAr_set_high 150000.00;
	remote_sense "line_cap_1b";
  pt_phase B;
	control_level BANK;
  dwell_time 101.00;
}
object capacitor {
  name "cap_capbank2c";
  parent "r42247";
  phases CN;
  phases_connected CN;
  cap_nominal_voltage 7200.00;
  capacitor_C 300000.00;
  switchC CLOSED;
  control MANUAL; // VAR;
  VAr_set_low -225000.00;
  VAr_set_high 150000.00;
	remote_sense "line_cap_2c";
  pt_phase C;
	control_level BANK;
  dwell_time 102.00;
}
object capacitor {
  name "cap_capbank1c";
  parent "r20185";
  phases CN;
  phases_connected CN;
  cap_nominal_voltage 7200.00;
  capacitor_C 300000.00;
  switchC CLOSED;
  control MANUAL; // VAR;
  VAr_set_low -225000.00;
  VAr_set_high 150000.00;
	remote_sense "line_cap_1c";
  pt_phase C;
	control_level BANK;
  dwell_time 102.00;
}
object inverter {
  name "inv_pv_pv_6";
 flags DELTAMODE;
  parent "sx2000404a_pvmtr";
  phases AS;
  generator_status ONLINE;
  four_quadrant_control_mode LOAD_FOLLOWING; //CONSTANT_PQ;
  inverter_type FOUR_QUADRANT;
  inverter_efficiency 1.0;
  power_factor 1.0;
  V_base 208.000;
  rated_power 12140.000;
  P_Out 9710.000;
  Q_Out 0.000;
  object solar {
    name "pv_pv_6";
 flags DELTAMODE;
    generator_mode SUPPLY_DRIVEN;
    generator_status ONLINE;
    panel_type SINGLE_CRYSTAL_SILICON;
    efficiency 0.2;
    rated_power 12140.000;
  };
}
object inverter {
  name "inv_pv_pv_8";
 flags DELTAMODE;
  parent "sx2000405a_pvmtr";
  phases AS;
  generator_status ONLINE;
  four_quadrant_control_mode LOAD_FOLLOWING; //CONSTANT_PQ;
  inverter_type FOUR_QUADRANT;
  inverter_efficiency 1.0;
  power_factor 1.0;
  V_base 208.000;
  rated_power 18660.000;
  P_Out 14930.000;
  Q_Out 0.000;
  object solar {
    name "pv_pv_8";
 flags DELTAMODE;
    generator_mode SUPPLY_DRIVEN;
    generator_status ONLINE;
    panel_type SINGLE_CRYSTAL_SILICON;
    efficiency 0.2;
    rated_power 18660.000;
  };
}
object inverter {
  name "inv_pv_pv_2";
 flags DELTAMODE;
  parent "sx2000402a_pvmtr";
  phases AS;
  generator_status ONLINE;
  four_quadrant_control_mode LOAD_FOLLOWING; //CONSTANT_PQ;
  inverter_type FOUR_QUADRANT;
  inverter_efficiency 1.0;
  power_factor 1.0;
  V_base 208.000;
  rated_power 14060.000;
  P_Out 11250.000;
  Q_Out 0.000;
  object solar {
    name "pv_pv_2";
 flags DELTAMODE;
    generator_mode SUPPLY_DRIVEN;
    generator_status ONLINE;
    panel_type SINGLE_CRYSTAL_SILICON;
    efficiency 0.2;
    rated_power 14060.000;
  };
}
object inverter {
  name "inv_pv_pv_4";
 flags DELTAMODE;
  parent "sx2000403a_pvmtr";
  phases AS;
  generator_status ONLINE;
  four_quadrant_control_mode LOAD_FOLLOWING; //CONSTANT_PQ;
  inverter_type FOUR_QUADRANT;
  inverter_efficiency 1.0;
  power_factor 1.0;
  V_base 208.000;
  rated_power 15700.000;
  P_Out 12560.000;
  Q_Out 0.000;
  object solar {
    name "pv_pv_4";
 flags DELTAMODE;
    generator_mode SUPPLY_DRIVEN;
    generator_status ONLINE;
    panel_type SINGLE_CRYSTAL_SILICON;
    efficiency 0.2;
    rated_power 15700.000;
  };
}
object inverter {
  name "inv_pv_pv_1043";
 flags DELTAMODE;
  parent "sx2804272b_pvmtr";
  phases BS;
  generator_status ONLINE;
  four_quadrant_control_mode LOAD_FOLLOWING; //CONSTANT_PQ;
  inverter_type FOUR_QUADRANT;
  inverter_efficiency 1.0;
  power_factor 1.0;
  V_base 208.000;
  rated_power 7300.000;
  P_Out 5840.000;
  Q_Out 0.000;
  object solar {
    name "pv_pv_1043";
 flags DELTAMODE;
    generator_mode SUPPLY_DRIVEN;
    generator_status ONLINE;
    panel_type SINGLE_CRYSTAL_SILICON;
    efficiency 0.2;
    rated_power 7300.000;
  };
}
object inverter {
  name "inv_pv_pv_156";
 flags DELTAMODE;
  parent "sx2001309a_pvmtr";
  phases AS;
  generator_status ONLINE;
  four_quadrant_control_mode LOAD_FOLLOWING; //CONSTANT_PQ;
  inverter_type FOUR_QUADRANT;
  inverter_efficiency 1.0;
  power_factor 1.0;
  V_base 208.000;
  rated_power 10310.000;
  P_Out 8250.000;
  Q_Out 0.000;
  object solar {
    name "pv_pv_156";
 flags DELTAMODE;
    generator_mode SUPPLY_DRIVEN;
    generator_status ONLINE;
    panel_type SINGLE_CRYSTAL_SILICON;
    efficiency 0.2;
    rated_power 10310.000;
  };
}
object inverter {
  name "inv_pv_pv_1163";
 flags DELTAMODE;
  parent "sx2879078a_pvmtr";
  phases AS;
  generator_status ONLINE;
  four_quadrant_control_mode LOAD_FOLLOWING; //CONSTANT_PQ;
  inverter_type FOUR_QUADRANT;
  inverter_efficiency 1.0;
  power_factor 1.0;
  V_base 208.000;
  rated_power 6700.000;
  P_Out 5320.000;
  Q_Out 0.000;
  object solar {
    name "pv_pv_1163";
 flags DELTAMODE;
    generator_mode SUPPLY_DRIVEN;
    generator_status ONLINE;
    panel_type SINGLE_CRYSTAL_SILICON;
    efficiency 0.2;
    rated_power 6700.000;
  };
}
object inverter {
  name "inv_pv_pv_1041";
 flags DELTAMODE;
  parent "sx2803199b_pvmtr";
  phases BS;
  generator_status ONLINE;
  four_quadrant_control_mode LOAD_FOLLOWING; //CONSTANT_PQ;
  inverter_type FOUR_QUADRANT;
  inverter_efficiency 1.0;
  power_factor 1.0;
  V_base 208.000;
  rated_power 24300.000;
  P_Out 19450.000;
  Q_Out 0.000;
  object solar {
    name "pv_pv_1041";
 flags DELTAMODE;
    generator_mode SUPPLY_DRIVEN;
    generator_status ONLINE;
    panel_type SINGLE_CRYSTAL_SILICON;
    efficiency 0.2;
    rated_power 24300.000;
  };
}
object inverter {
  name "inv_pv_pv_158";
 flags DELTAMODE;
  parent "sx2001310a_pvmtr";
  phases AS;
  generator_status ONLINE;
  four_quadrant_control_mode LOAD_FOLLOWING; //CONSTANT_PQ;
  inverter_type FOUR_QUADRANT;
  inverter_efficiency 1.0;
  power_factor 1.0;
  V_base 208.000;
  rated_power 22680.000;
  P_Out 18150.000;
  Q_Out 0.000;
  object solar {
    name "pv_pv_158";
 flags DELTAMODE;
    generator_mode SUPPLY_DRIVEN;
    generator_status ONLINE;
    panel_type SINGLE_CRYSTAL_SILICON;
    efficiency 0.2;
    rated_power 22680.000;
  };
}
object inverter {
  name "inv_pv_pv_1161";
 flags DELTAMODE;
  parent "sx2730149c_pvmtr";
  phases CS;
  generator_status ONLINE;
  four_quadrant_control_mode LOAD_FOLLOWING; //CONSTANT_PQ;
  inverter_type FOUR_QUADRANT;
  inverter_efficiency 1.0;
  power_factor 1.0;
  V_base 208.000;
  rated_power 7700.000;
  P_Out 6100.000;
  Q_Out 0.000;
  object solar {
    name "pv_pv_1161";
 flags DELTAMODE;
    generator_mode SUPPLY_DRIVEN;
    generator_status ONLINE;
    panel_type SINGLE_CRYSTAL_SILICON;
    efficiency 0.2;
    rated_power 7700.000;
  };
}
object inverter {
  name "inv_pv_pv_50";
 flags DELTAMODE;
  parent "sx2000712b_pvmtr";
  phases BS;
  generator_status ONLINE;
  four_quadrant_control_mode LOAD_FOLLOWING; //CONSTANT_PQ;
  inverter_type FOUR_QUADRANT;
  inverter_efficiency 1.0;
  power_factor 1.0;
  V_base 208.000;
  rated_power 14000.000;
  P_Out 11200.000;
  Q_Out 0.000;
  object solar {
    name "pv_pv_50";
 flags DELTAMODE;
    generator_mode SUPPLY_DRIVEN;
    generator_status ONLINE;
    panel_type SINGLE_CRYSTAL_SILICON;
    efficiency 0.2;
    rated_power 14000.000;
  };
}
object inverter {
  name "inv_pv_pv_52";
 flags DELTAMODE;
  parent "sx2000713b_pvmtr";
  phases BS;
  generator_status ONLINE;
...